    7
# CELL(abcABC):   26.45886    26.45886    26.45886    90.00000    90.00000    90.00000
    O      0.57221124     -0.82099183     -0.34085782      6.48095497
    O      2.93098657     -1.00085694      0.03450005      6.48103367
    H      0.11554376     -1.32891000     -1.03000320      0.60545425
    H      1.75146200     -0.91094158     -0.15265030      0.61619753
    H      3.30479374     -1.55123800      0.74081807      0.60545128
    H      3.58125213     -0.53348695     -0.51336512      0.60545835
    H      0.00591684     -0.23123720      0.18168415      0.60544996
