18
# CELL(abcABC):   26.45886    26.45886    26.45886    90.00000    90.00000    90.00000  Step:          20  Bead:       0 positions{angstrom}  cell{angstrom}
       O  2.54817e+00 -5.56027e-01 -2.44124e-01
       H  3.10125e+00 -5.78022e-01 -1.04289e+00
       H  2.24397e+00  3.80833e-01 -3.31788e-02
       O  1.76007e+00  1.93615e+00  2.22475e-01
       H  2.05360e+00  2.41646e+00  1.01466e+00
       H  7.97075e-01  2.13776e+00  6.51846e-03
       O -2.55250e+00  5.63544e-01  2.17974e-01
       H -3.12297e+00  5.81983e-01  1.00451e+00
       H -2.24355e+00 -3.72471e-01  1.03860e-02
       O -1.75549e+00 -1.92875e+00 -2.32038e-01
       H -2.04188e+00 -2.42174e+00 -1.01902e+00
       H -7.94627e-01 -2.12679e+00 -3.32381e-03
       O  7.91128e-01 -2.47583e+00  2.82411e-01
       H  1.05216e+00 -2.93921e+00  1.09578e+00
       H  1.44813e+00 -1.74968e+00  4.63091e-02
       O -7.91975e-01  2.49501e+00 -2.51320e-01
       H -1.06530e+00  3.00017e+00 -1.03522e+00
       H -1.44788e+00  1.76026e+00 -3.99685e-02
18
# CELL(abcABC):   26.45886    26.45886    26.45886    90.00000    90.00000    90.00000  Step:          20  Bead:       4 positions{angstrom}  cell{angstrom}
       O  2.56548e+00 -7.30203e-01 -3.14170e-01
       H  3.00951e+00 -8.37076e-01 -1.17157e+00
       H  2.32831e+00  2.37433e-01 -1.28190e-01
       O  1.94286e+00  1.77787e+00  8.61133e-02
       H  2.32870e+00  2.28249e+00  8.22251e-01
       H  9.45782e-01  1.96015e+00  1.26923e-02
       O -2.50627e+00  6.73329e-01 -8.35233e-03
       H -3.30916e+00  8.29392e-01  5.14293e-01
       H -2.26622e+00 -3.08703e-01 -1.04962e-01
       O -1.88018e+00 -1.82684e+00 -2.15809e-01
       H -2.26289e+00 -2.46627e+00 -8.38774e-01
       H -9.04016e-01 -2.00917e+00 -5.36914e-03
       O  6.15857e-01 -2.29121e+00  3.90149e-01
       H  7.72714e-01 -2.42470e+00  1.34071e+00
       H  1.34303e+00 -1.69099e+00  1.61003e-02
       O -5.83512e-01  2.36049e+00  3.88968e-02
       H -8.84833e-01  3.10797e+00 -5.04261e-01
       H -1.29918e+00  1.63542e+00  6.82641e-02
18
# CELL(abcABC):   26.45886    26.45886    26.45886    90.00000    90.00000    90.00000  Step:          20  Bead:       9 positions{angstrom}  cell{angstrom}
       O  2.56361e+00 -9.38028e-01 -3.97796e-01
       H  2.90334e+00 -1.11401e+00 -1.29064e+00
       H  2.40840e+00  5.06667e-02 -2.42625e-01
       O  2.10084e+00  1.62022e+00 -6.07075e-02
       H  2.59026e+00  2.13688e+00  6.02127e-01
       H  1.10163e+00  1.79236e+00  2.39406e-02
       O -2.45956e+00  8.00351e-01 -1.28661e-01
       H -3.37555e+00  1.11661e+00 -1.76545e-01
       H -2.33278e+00 -2.01757e-01 -2.22411e-01
       O -1.98935e+00 -1.71559e+00 -3.20485e-01
       H -2.48751e+00 -2.50968e+00 -5.72239e-01
       H -1.03663e+00 -1.89472e+00 -1.91260e-02
       O  4.34207e-01 -2.08082e+00  5.63850e-01
       H  4.82483e-01 -1.77901e+00  1.48754e+00
       H  1.24267e+00 -1.72403e+00  7.02145e-02
       O -3.86185e-01  2.19540e+00  3.29451e-01
       H -6.58689e-01  3.11916e+00  1.99543e-01
       H -1.16974e+00  1.56723e+00  1.50547e-01
18
# CELL(abcABC):   26.45886    26.45886    26.45886    90.00000    90.00000    90.00000  Step:          20  Bead:      14 positions{angstrom}  cell{angstrom}
       O  2.53402e+00 -1.09980e+00 -4.36874e-01
       H  2.79167e+00 -1.33154e+00 -1.34416e+00
       H  2.44840e+00 -1.01663e-01 -3.15070e-01
       O  2.18968e+00  1.49875e+00 -1.58392e-01
       H  2.75195e+00  2.02692e+00  4.32981e-01
       H  1.20928e+00  1.66996e+00  2.84676e-02
       O -2.47449e+00  9.08278e-01 -1.83020e-01
       H -3.20841e+00  1.30202e+00 -6.80878e-01
       H -2.37793e+00 -9.25759e-02 -2.98586e-01
       O -2.06708e+00 -1.64153e+00 -3.98337e-01
       H -2.64186e+00 -2.42252e+00 -3.50271e-01
       H -1.14173e+00 -1.79255e+00 -1.28413e-02
       O  3.01599e-01 -1.87738e+00  6.84097e-01
       H  3.12843e-01 -1.30144e+00  1.46786e+00
       H  1.14559e+00 -1.71727e+00  1.55102e-01
       O -2.68910e-01  2.04346e+00  5.01829e-01
       H -5.02347e-01  2.96355e+00  7.07825e-01
       H -1.08980e+00  1.53218e+00  1.94652e-01
18
# CELL(abcABC):   26.45886    26.45886    26.45886    90.00000    90.00000    90.00000  Step:          20  Bead:      19 positions{angstrom}  cell{angstrom}
       O  2.48056e+00 -1.25389e+00 -4.59151e-01
       H  2.66857e+00 -1.53805e+00 -1.36862e+00
       H  2.47105e+00 -2.52507e-01 -3.75469e-01
       O  2.25381e+00  1.38156e+00 -2.39699e-01
       H  2.88093e+00  1.92004e+00  2.70680e-01
       H  1.30315e+00  1.55825e+00  3.90515e-02
       O -2.45516e+00  1.03486e+00 -3.19540e-01
       H -2.97832e+00  1.43080e+00 -1.03596e+00
       H -2.41083e+00  2.81671e-02 -3.76323e-01
       O -2.15368e+00 -1.57087e+00 -4.14472e-01
       H -2.77018e+00 -2.28073e+00 -1.69298e-01
       H -1.24140e+00 -1.68446e+00  7.44853e-03
       O  1.84115e-01 -1.65450e+00  7.83099e-01
       H  1.89339e-01 -8.78251e-01  1.37014e+00
       H  1.04063e+00 -1.67886e+00  2.58292e-01
       O -1.79054e-01  1.88810e+00  6.61720e-01
       H -3.74547e-01  2.71574e+00  1.13232e+00
       H -1.01461e+00  1.52159e+00  2.28674e-01
18
# CELL(abcABC):   26.45886    26.45886    26.45886    90.00000    90.00000    90.00000  Step:          20  Bead:      24 positions{angstrom}  cell{angstrom}
       O  2.43848e+00 -1.33511e+00 -4.47706e-01
       H  2.58092e+00 -1.65036e+00 -1.35503e+00
       H  2.46355e+00 -3.33502e-01 -3.90748e-01
       O  2.27183e+00  1.31511e+00 -2.76722e-01
       H  2.92215e+00  1.86207e+00  1.93834e-01
       H  1.33583e+00  1.49102e+00  4.37862e-02
       O -2.41206e+00  1.10747e+00 -3.84633e-01
       H -2.79496e+00  1.50072e+00 -1.18615e+00
       H -2.40927e+00  9.72748e-02 -4.10545e-01
       O -2.19606e+00 -1.50639e+00 -4.05516e-01
       H -2.84069e+00 -2.15807e+00 -8.27430e-02
       H -1.28867e+00 -1.60990e+00  3.16747e-02
       O  1.25601e-01 -1.51849e+00  8.17431e-01
       H  1.45508e-01 -6.50485e-01  1.26047e+00
       H  9.82037e-01 -1.64927e+00  3.10285e-01
       O -1.39786e-01  1.76776e+00  7.28597e-01
       H -3.19578e-01  2.52426e+00  1.31265e+00
       H -9.80414e-01  1.49876e+00  2.33126e-01
18
# CELL(abcABC):   26.45886    26.45886    26.45886    90.00000    90.00000    90.00000  Step:          20  Bead:      29 positions{angstrom}  cell{angstrom}
       O  2.38967e+00 -1.41758e+00 -4.40862e-01
       H  2.49544e+00 -1.76893e+00 -1.33977e+00
       H  2.46155e+00 -4.19704e-01 -4.16151e-01
       O  2.29581e+00  1.25099e+00 -3.14741e-01
       H  2.97260e+00  1.80026e+00  1.13219e-01
       H  1.38076e+00  1.42425e+00  5.28522e-02
       O -2.35393e+00  1.18154e+00 -4.66948e-01
       H -2.62926e+00  1.55501e+00 -1.32098e+00
       H -2.41068e+00  1.72834e-01 -4.55365e-01
       O -2.24646e+00 -1.44574e+00 -3.87061e-01
       H -2.90184e+00 -2.05129e+00 -9.86921e-04
       H -1.34042e+00 -1.52839e+00  5.90377e-02
       O  6.59063e-02 -1.35723e+00  8.52463e-01
       H  9.42284e-02 -4.18705e-01  1.13585e+00
       H  9.16279e-01 -1.58785e+00  3.75180e-01
       O -1.05813e-01  1.63544e+00  8.02522e-01
       H -2.66142e-01  2.30244e+00  1.49358e+00
       H -9.43346e-01  1.49244e+00  2.49378e-01
18
# CELL(abcABC):   26.45886    26.45886    26.45886    90.00000    90.00000    90.00000  Step:          20  Bead:      34 positions{angstrom}  cell{angstrom}
       O  2.35345e+00 -1.47765e+00 -4.24326e-01
       H  2.41854e+00 -1.87032e+00 -1.30970e+00
       H  2.46234e+00 -4.85619e-01 -4.41004e-01
       O  2.30954e+00  1.20528e+00 -3.49105e-01
       H  3.00429e+00  1.75981e+00  4.07297e-02
       H  1.41463e+00  1.37736e+00  5.46092e-02
       O -2.29967e+00  1.23509e+00 -5.39451e-01
       H -2.43607e+00  1.57473e+00 -1.44044e+00
       H -2.41278e+00  2.30969e-01 -4.96769e-01
       O -2.28118e+00 -1.39221e+00 -3.65643e-01
       H -2.93804e+00 -1.95530e+00  7.89536e-02
       H -1.37159e+00 -1.44799e+00  8.30702e-02
       O  2.25107e-02 -1.20295e+00  8.66354e-01
       H  5.36891e-02 -2.19781e-01  9.92638e-01
       H  8.71017e-01 -1.51253e+00  4.36522e-01
       O -9.43400e-02  1.55508e+00  8.40095e-01
       H -2.60262e-01  2.00853e+00  1.68546e+00
       H -9.35825e-01  1.50705e+00  2.70673e-01
